SOLVER = EULER
KIND_TURB_MODEL = NONE
KIND_SGS_MODEL = NONE
KIND_VERIFICATION_SOLUTION = NO_VERIFICATION_SOLUTION
MATH_PROBLEM = DIRECT
AXISYMMETRIC = NO
RESTART_SOL = NO
DISCARD_INFILES = NO
SYSTEM_MEASUREMENTS = SI
INNER_ITER = 150
OUTER_ITER = 1
TIME_ITER = 1
CONV_FIELD = DRAG
CONV_RESIDUAL_MINVAL = -8
CONV_STARTITER = 10
CONV_CAUCHY_ELEMS = 100
CONV_CAUCHY_EPS = 1E-10
RESTART_ITER = 0
TIME_DOMAIN = NO
TIME_MARCHING = NO
TIME_STEP = 0.0
MAX_TIME = 50.0
UNST_CFL_NUMBER = 0.0
HYBRID_RANSLES = SA_DDES
DES_CONST = 0.65
MACH_NUMBER = 0.3
AOA = 2.0
SIDESLIP_ANGLE = 0.0
INIT_OPTION = REYNOLDS
FREESTREAM_OPTION = TEMPERATURE_FS
FREESTREAM_PRESSURE = 101325.0
FREESTREAM_TEMPERATURE = 288.15
REYNOLDS_NUMBER = 6.5E6
REYNOLDS_LENGTH = 1.0
FREESTREAM_DENSITY = 1.2886
FREESTREAM_VELOCITY = ( 1.0 , 0.00 , 0.00 ) 
FREESTREAM_VISCOSITY = 1.853E-5
REF_DIMENSIONALIZATION = DIMENSIONAL
INC_DENSITY_MODEL = CONSTANT
INC_ENERGY_EQUATION = NO
INC_DENSITY_INIT = 1.2886
INC_VELOCITY_INIT = ( 1.0 , 0.0 , 0.0 ) 
INC_TEMPERATURE_INIT = 288.15
INC_NONDIM = INITIAL_VALUES
INC_DENSITY_REF = 1.0
INC_VELOCITY_REF = 1.0
INC_TEMPERATURE_REF = 1.0
INC_INLET_TYPE = VELOCITY_INLET
INC_INLET_DAMPING = 0.1
INC_OUTLET_TYPE = PRESSURE_OUTLET
INC_OUTLET_DAMPING = 0.1
FIXED_CL_MODE = NO
TARGET_CL = 1.0
DCL_DALPHA = 0.1
UPDATE_AOA_ITER_LIMIT = 50
ITER_DCL_DALPHA = 80
REF_ORIGIN_MOMENT_X = 9.6115
REF_ORIGIN_MOMENT_Y = 0.0
REF_ORIGIN_MOMENT_Z = 2.5277
REF_LENGTH = 1.8008
REF_AREA = 55.7983
SEMI_SPAN = 0.0
FLUID_MODEL = STANDARD_AIR
GAMMA_VALUE = 1.4
GAS_CONSTANT = 287.058
CRITICAL_TEMPERATURE = 131.00
CRITICAL_PRESSURE = 3588550.0
ACENTRIC_FACTOR = 0.035
SPECIFIC_HEAT_CP = 1004.703
THERMAL_EXPANSION_COEFF = 0.00347
MOLECULAR_WEIGHT = 28.96
CP_POLYCOEFFS = ( 0.0 , 0.0 , 0.0 , 0.0 , 0.0 ) 
VISCOSITY_MODEL = SUTHERLAND
MU_CONSTANT = 1.716E-5
MU_REF = 1.716E-5
MU_T_REF = 273.15
SUTHERLAND_CONSTANT = 110.4
MU_POLYCOEFFS = ( 0.0 , 0.0 , 0.0 , 0.0 , 0.0 ) 
CONDUCTIVITY_MODEL = CONSTANT_PRANDTL
KT_CONSTANT = 0.0257
PRANDTL_LAM = 0.72
KT_POLYCOEFFS = ( 0.0 , 0.0 , 0.0 , 0.0 , 0.0 ) 
TURBULENT_CONDUCTIVITY_MODEL = CONSTANT_PRANDTL_TURB
PRANDTL_TURB = 0.90
GRID_MOVEMENT = NONE
MACH_MOTION = 0.8
MOTION_ORIGIN = 0.25 0.0 0.0
ROTATION_RATE = 0.0 0.0 0.0
PITCHING_OMEGA = 0.0 0.0 0.0
PITCHING_AMPL = 0.0 0.0 0.0
PITCHING_PHASE = 0.0 0.0 0.0
TRANSLATION_RATE = 0.0 0.0 0.0
PLUNGING_OMEGA = 0.0 0.0 0.0
PLUNGING_AMPL = 0.0 0.0 0.0
SURFACE_MOVEMENT = NONE
MARKER_MOVING = ( NONE ) 
SURFACE_MOTION_ORIGIN = 0.0 0.0 0.0
SURFACE_ROTATION_RATE = 0.0 0.0 0.0
SURFACE_PITCHING_OMEGA = 0.0 0.0 0.0
SURFACE_PITCHING_AMPL = 0.0 0.0 0.0
SURFACE_PITCHING_PHASE = 0.0 0.0 0.0
SURFACE_TRANSLATION_RATE = 0.0 0.0 0.0
SURFACE_PLUNGING_OMEGA = 0.0 0.0 0.0
SURFACE_PLUNGING_AMPL = 0.0 0.0 0.0
MOVE_MOTION_ORIGIN = 0
BUFFET_MONITORING = NO
BUFFET_K = 10.0
BUFFET_LAMBDA = 0.0
FLUTTER_SPEED_INDEX = 0.6
PLUNGE_NATURAL_FREQUENCY = 100
PITCH_NATURAL_FREQUENCY = 100
AIRFOIL_MASS_RATIO = 60
CG_LOCATION = 1.8
RADIUS_GYRATION_SQUARED = 3.48
AEROELASTIC_ITER = 3
WIND_GUST = NO
GUST_TYPE = NONE
GUST_DIR = Y_DIR
GUST_WAVELENGTH = 10.0
GUST_PERIODS = 1.0
GUST_AMPL = 10.0
GUST_BEGIN_TIME = 0.0
GUST_BEGIN_LOC = 0.0
EQUIV_AREA = NO
EA_INT_LIMIT = ( 1.6 , 2.9 , 1.0 ) 
EA_SCALE_FACTOR = 1.0
FIX_AZIMUTHAL_LINE = 90.0
DRAG_IN_SONICBOOM = 0.0
HIGHLITE_AREA = 1.0
FAN_POLY_EFF = 1.0
ENGINE_HALF_MODEL = NO
DAMP_ENGINE_INFLOW = 0.95
DAMP_ENGINE_EXHAUST = 0.95
ENGINE_NU_FACTOR = 3.0
ACTDISK_JUMP = DIFFERENCE
UPDATE_BCTHRUST = 100
INITIAL_BCTHRUST = 4000.0
SUBSONIC_ENGINE = NO
SUBSONIC_ENGINE_CYL = ( 0.0 , 0.0 , 0.0 , 1.0 , 0.0 , 0.0 , 1.0 ) 
SUBSONIC_ENGINE_VALUES = ( 0.4 , 0.0 , 0.0 , 2116.216 , 518.67 ) 
TURBOMACHINERY_KIND = CENTRIPETAL CENTRIPETAL_AXIAL
MIXINGPLANE_INTERFACE_KIND = LINEAR_INTERPOLATION
TURBULENT_MIXINGPLANE = YES
RAMP_OUTLET_PRESSURE = NO
RAMP_OUTLET_PRESSURE_COEFF = ( 400000.0 , 10.0 , 500 ) 
RAMP_ROTATING_FRAME = YES
RAMP_ROTATING_FRAME_COEFF = ( 0.0 , 39.0 , 500 ) 
AVERAGE_PROCESS_KIND = MIXEDOUT
PERFORMANCE_AVERAGE_PROCESS_KIND = MIXEDOUT
MIXEDOUT_COEFF = ( 1.0 , 1.0E-05 , 15 ) 
AVERAGE_MACH_LIMIT = 0.05
INV_DESIGN_CP = NO
INV_DESIGN_HEATFLUX = NO
BODY_FORCE = NO
BODY_FORCE_VECTOR = ( 0.0 , 0.0 , 0.0 ) 
MARKER_EULER = ( VTP , Fuselage , HTP , Wing ) 
MARKER_HEATFLUX = ( NONE ) 
MARKER_ISOTHERMAL = ( NONE ) 
MARKER_FAR = ( Farfield ) 
MARKER_SYM = ( 0 ) 
MARKER_INTERNAL = ( NONE ) 
MARKER_NEARFIELD = ( NONE ) 
INLET_TYPE = TOTAL_CONDITIONS
SPECIFIED_INLET_PROFILE = NO
INLET_FILENAME = inlet.dat
MARKER_INLET = ( NONE ) 
MARKER_OUTLET = ( NONE ) 
ACTDISK_TYPE = VARIABLES_JUMP
MARKER_ACTDISK = ( NONE ) 
MARKER_SUPERSONIC_INLET = ( NONE ) 
MARKER_SUPERSONIC_OUTLET = ( NONE ) 
MARKER_PERIODIC = ( NONE ) 
ENGINE_INFLOW_TYPE = FAN_FACE_MACH
MARKER_ENGINE_INFLOW = ( NONE ) 
MARKER_ENGINE_EXHAUST = ( NONE ) 
MARKER_NORMAL_DISPL = ( NONE ) 
MARKER_PRESSURE = ( NONE ) 
MARKER_RIEMANN = ( NONE ) 
MARKER_SHROUD = ( NONE ) 
MARKER_ZONE_INTERFACE = ( NONE ) 
MARKER_FLUID_INTERFACE = ( NONE ) 
KIND_INTERPOLATION = NEAREST_NEIGHBOR
MARKER_TURBOMACHINERY = ( NONE ) 
MARKER_MIXINGPLANE_INTERFACE = ( NONE ) 
MARKER_GILES = ( NONE ) 
GILES_EXTRA_RELAXFACTOR = ( 0.05 , 0.05 ) 
SPATIAL_FOURIER = NO
MARKER_PLOTTING = ( VTP , Fuselage , HTP , Wing ) 
MARKER_MONITORING = ( VTP , Fuselage , HTP , Wing ) 
MARKER_WALL_FUNCTIONS = ( airfoil , NO_WALL_FUNCTION ) 
MARKER_PYTHON_CUSTOM = ( NONE ) 
MARKER_DESIGNING = ( airfoil ) 
MARKER_ANALYZE = ( airfoil ) 
MARKER_ANALYZE_AVERAGE = MASSFLUX
NUM_METHOD_GRAD = GREEN_GAUSS
CFL_NUMBER = 1.0
CFL_ADAPT = NO
CFL_ADAPT_PARAM = ( 0.1 , 2.0 , 10.0 , 1e10 ) 
MAX_DELTA_TIME = 1E6
RK_ALPHA_COEFF = ( 0.66667 , 0.66667 , 1.000000 ) 
OBJECTIVE_FUNCTION = DRAG
OBJECTIVE_WEIGHT = 1.0
MUSCL_FLOW = YES
SLOPE_LIMITER_FLOW = VENKATAKRISHNAN
MUSCL_TURB = NO
SLOPE_LIMITER_TURB = VENKATAKRISHNAN
MUSCL_ADJFLOW = YES
SLOPE_LIMITER_ADJFLOW = VENKATAKRISHNAN
MUSCL_ADJTURB = NO
SLOPE_LIMITER_ADJTURB = VENKATAKRISHNAN
VENKAT_LIMITER_COEFF = 0.05
REF_SHARP_EDGES = 3.0
ADJ_SHARP_LIMITER_COEFF = 3.0
SENS_REMOVE_SHARP = NO
LIMITER_ITER = 999999
LAX_SENSOR_COEFF = 0.15
JST_SENSOR_COEFF = ( 0.5 , 0.02 ) 
ADJ_LAX_SENSOR_COEFF = 0.15
ADJ_JST_SENSOR_COEFF = ( 0.5 , 0.02 ) 
LINEAR_SOLVER = FGMRES
DISCADJ_LIN_SOLVER = FGMRES
LINEAR_SOLVER_PREC = ILU
DISCADJ_LIN_PREC = ILU
LINEAR_SOLVER_ILU_FILL_IN = 0
LINEAR_SOLVER_ERROR = 1E-6
LINEAR_SOLVER_ITER = 5
LINEAR_SOLVER_RESTART_FREQUENCY = 10
LINEAR_SOLVER_SMOOTHER_RELAXATION = 1.0
MGLEVEL = 3
MGCYCLE = V_CYCLE
MG_PRE_SMOOTH = ( 1 , 2 , 3 , 3 ) 
MG_POST_SMOOTH = ( 0 , 0 , 0 , 0 ) 
MG_CORRECTION_SMOOTH = ( 0 , 0 , 0 , 0 ) 
MG_DAMP_RESTRICTION = 0.75
MG_DAMP_PROLONGATION = 0.75
CONV_NUM_METHOD_FLOW = ROE
ROE_LOW_DISSIPATION = FD
LOW_MACH_CORR = NO
LOW_MACH_PREC = NO
USE_ACCURATE_FLUX_JACOBIANS = NO
ENTROPY_FIX_COEFF = 0.0
CENTRAL_JACOBIAN_FIX_FACTOR = 4.0
TIME_DISCRE_FLOW = EULER_IMPLICIT
NUM_METHOD_FEM_FLOW = DG
RIEMANN_SOLVER_FEM = ROE
QUADRATURE_FACTOR_STRAIGHT_FEM = 2.0
QUADRATURE_FACTOR_CURVED_FEM = 3.0
THETA_INTERIOR_PENALTY_DG_FEM = 1.0
COMPUTE_ENTROPY_FLUID_MODEL = YES
USE_LUMPED_MASSMATRIX_DGFEM = NO
JACOBIAN_SPATIAL_DISCRETIZATION_ONLY = NO
ALIGNED_BYTES_MATMUL = 128
TIME_DISCRE_FEM_FLOW = RUNGE-KUTTA_EXPLICIT
ADER_PREDICTOR = ADER_ALIASED_PREDICTOR
LEVELS_TIME_ACCURATE_LTS = 1
KIND_MATRIX_COLORING = GREEDY_COLORING
CONV_NUM_METHOD_TURB = SCALAR_UPWIND
TIME_DISCRE_TURB = EULER_IMPLICIT
CFL_REDUCTION_TURB = 1.0
THERMAL_DIFFUSIVITY = 1.0
CONV_NUM_METHOD_ADJTURB = SCALAR_UPWIND
TIME_DISCRE_ADJTURB = EULER_IMPLICIT
CFL_REDUCTION_ADJTURB = 0.01
GEO_MARKER = ( airfoil ) 
GEO_DESCRIPTION = AIRFOIL
GEO_LOCATION_STATIONS = ( 0.0 , 0.5 , 1.0 ) 
GEO_BOUNDS = ( 1.5 , 3.5 ) 
GEO_PLOT_STATIONS = NO
GEO_NUMBER_STATIONS = 25
GEO_MODE = FUNCTION
KIND_ADAPT = FULL_FLOW
NEW_ELEMS = 5
DUALVOL_POWER = 0.5
ADAPT_BOUNDARY = YES
DV_KIND = FFD_SETTING
DV_MARKER = ( VTP , Fuselage , HTP , Wing ) 
DV_PARAM = ( 1 , 0.5 ) 
DV_VALUE = 0.01
DV_FILENAME = surface_positions.dat
DV_SENS_FILENAME = surface_sensitivity.dat
DV_SENSITIVITY_FORMAT = SU2_NATIVE
DV_UNORDERED_SENS_FILENAME = unordered_sensitivity.dat
DEFORM_MESH = NO
MARKER_DEFORM_MESH = ( airfoil ) 
DEFORM_LINEAR_SOLVER = FGMRES
DEFORM_LINEAR_SOLVER_PREC = ILU
DEFORM_LINEAR_SOLVER_ITER = 1000
DEFORM_NONLINEAR_ITER = 1
DEFORM_LINEAR_SOLVER_ERROR = 1E-14
DEFORM_CONSOLE_OUTPUT = YES
DEFORM_COEFF = 1E6
DEFORM_STIFFNESS_TYPE = WALL_DISTANCE
DEFORM_LIMIT = 1E6
VISUALIZE_SURFACE_DEF = YES
VISUALIZE_VOLUME_DEF = NO
FFD_TOLERANCE = 1E-10
FFD_ITERATIONS = 500
FFD_DEFINITION = ( MAIN_BOX , 0.5 , 0.25 , -0.25 , 1.5 , 0.25 , -0.25 , 1.5 , 0.75 , -0.25 , 0.5 , 0.75 , -0.25 , 0.5 , 0.25 , 0.25 , 1.5 , 0.25 , 0.25 , 1.5 , 0.75 , 0.25 , 0.5 , 0.75 , 0.25 ) 
FFD_DEGREE = ( 10 , 10 , 1 ) 
FFD_CONTINUITY = 2ND_DERIVATIVE
FFD_FIX_I = ( 0 , 2 , 3 ) 
FFD_FIX_J = ( 0 , 2 , 3 ) 
FFD_FIX_K = ( 0 , 2 , 3 ) 
FFD_SYMMETRY_PLANE = NO
FFD_COORD_SYSTEM = CARTESIAN
FFD_AXIS = ( 0.0 , 0.0 , 0.0 ) 
FFD_BLENDING = BEZIER
FFD_BSPLINE_ORDER = 2, 2, 2
USING_UQ = NO
UQ_COMPONENT = 1
UQ_PERMUTE = NO
UQ_URLX = 0.1
UQ_DELTA_B = 1.0
SCREEN_OUTPUT = ( INNER_ITER , TIME_ITER , RMS_DENSITY , RMS_MOMENTUM-X , RMS_MOMENTUM-Y , RMS_ENERGY , LIFT , DRAG ) 
HISTORY_OUTPUT = ( ITER , TIME_ITER , RMS_RES , AERO_COEFF ) 
VOLUME_OUTPUT = ( COORDINATES , SOLUTION , PRIMITIVE ) 
SCREEN_WRT_FREQ_INNER = 1
SCREEN_WRT_FREQ_OUTER = 1
SCREEN_WRT_FREQ_TIME = 1
HISTORY_WRT_FREQ_INNER = 1
HISTORY_WRT_FREQ_OUTER = 1
HISTORY_WRT_FREQ_TIME = 1
OUTPUT_WRT_FREQ = 10
MESH_FILENAME = deformed.su2
MESH_FORMAT = SU2
MESH_OUT_FILENAME = mesh_out.su2
SOLUTION_FILENAME = /users/disk9/cfse2/Documents/aeroframe_2/test/static/2_Optimale_SU2/CFD/Case00_alt0_mach0.3_aoa2.0_aos0.0/7/solution_flow.dat
SOLUTION_ADJ_FILENAME = /users/disk9/cfse2/Documents/aeroframe_2/test/static/2_Optimale_SU2/CFD/Case00_alt0_mach0.3_aoa2.0_aos0.0/7/solution_adj.dat
TABULAR_FORMAT = TECPLOT
OUTPUT_FILES = ( RESTART , PARAVIEW , SURFACE_PARAVIEW ) 
CONV_FILENAME = history
WRT_FORCES_BREAKDOWN = YES
BREAKDOWN_FILENAME = forces_breakdown.dat
RESTART_FILENAME = solution_flow.dat
RESTART_ADJ_FILENAME = solution_adj.dat
VOLUME_FILENAME = flow
VOLUME_ADJ_FILENAME = adjoint
VALUE_OBJFUNC_FILENAME = of_eval.dat
GRAD_OBJFUNC_FILENAME = of_grad.dat
SURFACE_FILENAME = surface_flow
SURFACE_ADJ_FILENAME = surface_adjoint
READ_BINARY_RESTART = YES
REORIENT_ELEMENTS = YES
MULTIPOINT_MACH_NUMBER = ( 0.79 , 0.8 , 0.81 ) 
MULTIPOINT_AOA = ( 1.25 , 1.25 , 1.25 ) 
MULTIPOINT_SIDESLIP_ANGLE = ( 0.0 , 0.0 , 0.0 ) 
MULTIPOINT_TARGET_CL = ( 0.8 , 0.8 , 0.8 ) 
MULTIPOINT_REYNOLDS_NUMBER = ( 1E6 , 1E6 , 1E6 ) 
MULTIPOINT_FREESTREAM_PRESSURE = ( 101325.0 , 101325.0 , 101325.0 ) 
MULTIPOINT_FREESTREAM_TEMPERATURE = ( 288.15 , 288.15 , 288.15 ) 
MULTIPOINT_OUTLET_VALUE = ( 0.0 , 0.0 , 0.0 ) 
MULTIPOINT_WEIGHT = ( 0.33333 , 0.33333 , 0.33333 ) 
MULTIPOINT_MESH_FILENAME = ( mesh_NACA0012_m79.su2 , mesh_NACA0012_m8.su2 , mesh_NACA0012_m81.su2 ) 
OPT_OBJECTIVE = DRAG
OPT_CONSTRAINT = ( LIFT > 0.328188 ) 
OPT_GRADIENT_FACTOR = 1E-6
OPT_RELAX_FACTOR = 1E3
OPT_ITERATIONS = 100
OPT_ACCURACY = 1E-10
OPT_LINE_SEARCH_BOUND = 1E6
OPT_BOUND_UPPER = 1E10
OPT_BOUND_LOWER = -1E10
FIN_DIFF_STEP = 0.001
DEFINITION_DV = ( 1 , 1.0 | airfoil | 0 , 0.05 ) 
OPT_COMBINE_OBJECTIVE = NO
